 36
jmolscript: load "" {1 1 1} spacegroup "x,y,z" unitcell [{ 9.470200 0.000000 0.000000 }, { -0.721600 9.442668 0.000000 }, { -0.721600 -0.778849 9.410493 }]
Si   0.135660   2.474187   8.233157   2.279489
Si   7.984839   0.734243   3.132076   2.278327
Si   2.466669   8.190369   0.980498   2.278426
Si   5.585492   8.350230   1.157688   2.277710
Si   7.911801   0.658652   6.254125   2.277163
Si   0.060301   5.595385   8.406040   2.281178
Si   7.913334   6.190869   1.158089   2.277725
Si   0.062043   7.932626   6.255724   2.280244
Si   5.586137   0.477127   8.408285   2.278167
Si   2.466112   0.318234   8.233576   2.280387
Si   0.136520   8.009010   3.131926   2.279411
Si   7.985329   3.073479   0.982228   2.277263
O   1.594792   1.713679   8.420162   -1.097590
O   0.010530   0.001298   3.031212   -1.208605
O   8.112861   2.204376   2.384522   -1.098510
O   3.026558   0.237796   0.246139   -1.209849
O   1.593287   8.254155   2.385783   -1.097794
O   0.012367   3.030308   0.246466   -1.208809
O   6.455064   6.953421   0.978704   -1.096812
O   8.036137   8.666078   6.362982   -1.210196
O   6.455908   0.412457   7.001623   -1.096884
O   8.033225   5.635717   9.144335   -1.209056
O   -0.072824   6.462418   7.002957   -1.099217
O   5.032485   8.433657   9.149217   -1.205641
O   1.276700   6.157363   9.396504   -1.184717
O   -0.706791   1.938775   6.898925   -1.183879
O   6.051637   9.226451   2.495616   -1.182560
O   6.049539   1.734871   9.396911   -1.182697
O   -0.710292   6.726024   2.490851   -1.183603
O   1.993546   -0.558915   6.897133   -1.185272
O   0.503159   7.593108   4.694095   -1.067410
O   4.026246   0.798911   7.951230   -1.069016
O   7.541367   4.601426   1.448982   -1.065555
O   7.538931   1.074516   4.693053   -1.065764
O   4.026118   7.864863   1.440135   -1.067781
O   0.498577   4.065149   7.945967   -1.068270
   
See ddec.sourceforge.net for latest version.
   
Computational parameters:
reference_weighting = 0.21
Number of radial integration shells = 100
Cutoff radius (pm) = 500
Error in the integrated total number of electrons before renormalization (e) = 5.752810e-02
charge convergence tolerance = 0.000010
minimum radius for electron cloud penetration fitting (pm) = 200.000000
Decay exponent for electron density of buried atom tails = 1.750000
Number of iterations to convergence = 92
   
The following XYZ coordinates are in angstroms. The atomic dipoles and quadrupoles are in atomic units.
atomic symbol, x, y, z, net_charge, dipole_x, dipole_y, dipole_z, dipole_mag, Qxy, Qxz, Qyz, Q(x^2-y^2), Q(3z^2 - R^2)
Si   0.135660   2.474187   8.233157   2.279489   0.050370   0.026207   -0.007672   0.057295   0.026828   0.027147   -0.061406   0.088676   0.263654
Si   7.984839   0.734243   3.132076   2.278327   -0.013161   0.049064   0.024890   0.056569   0.031090   -0.048902   0.024497   0.084163   -0.296725
Si   2.466669   8.190369   0.980498   2.278426   0.021488   -0.012016   0.051491   0.057074   -0.065562   0.015014   0.029251   -0.176366   0.024259
Si   5.585492   8.350230   1.157688   2.277710   -0.021485   -0.052690   0.008571   0.057544   0.020432   -0.064452   0.020749   -0.096186   0.264210
Si   7.911801   0.658652   6.254125   2.277163   -0.049351   0.009737   -0.024117   0.055785   0.024392   0.029495   -0.047154   -0.094528   -0.296020
Si   0.060301   5.595385   8.406040   2.281178   0.012601   -0.021346   -0.051526   0.057179   -0.050372   0.027614   0.016410   0.191934   0.024986
Si   7.913334   6.190869   1.158089   2.277725   -0.050204   -0.024899   0.008362   0.056660   0.026763   0.025910   -0.061220   0.089764   0.261794
Si   0.062043   7.932626   6.255724   2.280244   0.013418   -0.048771   -0.024316   0.056125   0.032278   -0.049335   0.025526   0.083032   -0.293862
Si   5.586137   0.477127   8.408285   2.278167   -0.022597   0.011952   -0.051549   0.057540   -0.066894   0.014686   0.028270   -0.174490   0.024063
Si   2.466112   0.318234   8.233576   2.280387   0.021801   0.053021   -0.007894   0.057869   0.020664   -0.062575   0.022011   -0.094617   0.265418
Si   0.136520   8.009010   3.131926   2.279411   0.049779   -0.009541   0.025640   0.056802   0.024370   0.028076   -0.046557   -0.095757   -0.294805
Si   7.985329   3.073479   0.982228   2.277263   -0.013332   0.020030   0.051686   0.057012   -0.051401   0.027137   0.016015   0.193811   0.028360
O   1.594792   1.713679   8.420162   -1.097590   0.127663   0.137829   0.097438   0.211634   0.053263   -0.019170   -0.020864   -0.007991   0.183432
O   0.010530   0.001298   3.031212   -1.208605   0.162073   0.175234   -0.051255   0.244134   0.109696   -0.009353   -0.010683   -0.016595   -0.012169
O   8.112861   2.204376   2.384522   -1.098510   0.071701   0.134195   0.145031   0.210198   -0.016728   -0.017926   0.050778   0.106602   -0.087633
O   3.026558   0.237796   0.246139   -1.209849   -0.081288   0.159419   0.173280   0.249094   -0.017652   -0.019276   0.105740   0.009980   0.025238
O   1.593287   8.254155   2.385783   -1.097794   0.128546   0.083628   0.144681   0.210832   -0.024286   0.051320   -0.013705   -0.098666   -0.088135
O   0.012367   3.030308   0.246466   -1.208809   0.164255   -0.067524   0.172202   0.247372   -0.018254   0.107461   -0.011638   -0.003920   0.025233
O   6.455064   6.953421   0.978704   -1.096812   -0.127754   -0.138824   -0.093332   0.210485   0.052756   -0.019981   -0.021902   -0.007224   0.182386
O   8.036137   8.666078   6.362982   -1.210196   -0.162182   -0.175832   0.055559   0.245575   0.110251   -0.010145   -0.010106   -0.015943   -0.009044
O   6.455908   0.412457   7.001623   -1.096884   -0.127235   -0.084152   -0.146073   0.211205   -0.024591   0.052584   -0.014108   -0.098022   -0.089938
O   8.033225   5.635717   9.144335   -1.209056   -0.164836   0.066846   -0.172794   0.247986   -0.018656   0.106973   -0.011483   -0.004145   0.028580
O   -0.072824   6.462418   7.002957   -1.099217   -0.075525   -0.134270   -0.145427   0.211853   -0.016402   -0.017632   0.051234   0.106613   -0.086365
O   5.032485   8.433657   9.149217   -1.205641   0.083977   -0.156994   -0.170740   0.246681   -0.018165   -0.020141   0.106090   0.013889   0.025492
O   1.276700   6.157363   9.396504   -1.184717   0.187565   -0.172006   -0.000295   0.254493   -0.066550   -0.035283   -0.038388   0.009752   -0.004882
O   -0.706791   1.938775   6.898925   -1.183879   0.002552   0.184491   -0.172285   0.252440   -0.030568   -0.033655   -0.072145   0.006698   -0.035263
O   6.051637   9.226451   2.495616   -1.182560   -0.184564   -0.018808   0.174689   0.254822   -0.029180   -0.068882   -0.038636   -0.000089   -0.032966
O   6.049539   1.734871   9.396911   -1.182697   -0.186273   0.173894   -0.000773   0.254828   -0.066900   -0.035146   -0.039270   0.011658   -0.004660
O   -0.710292   6.726024   2.490851   -1.183603   -0.001552   -0.186528   0.172078   0.253784   -0.029990   -0.032376   -0.071301   0.008952   -0.032022
O   1.993546   -0.558915   6.897133   -1.185272   0.183767   0.019663   -0.173309   0.253363   -0.030739   -0.069916   -0.039589   0.001321   -0.031247
O   0.503159   7.593108   4.694095   -1.067410   0.170049   -0.159466   -0.000661   0.233123   0.030807   0.007807   0.008386   -0.006068   -0.198352
O   4.026246   0.798911   7.951230   -1.069016   -0.000554   0.171368   -0.156924   0.232362   -0.001093   -0.002491   0.031881   -0.098425   0.112447
O   7.541367   4.601426   1.448982   -1.065555   -0.172587   -0.012601   0.160017   0.235692   0.004968   0.030802   -0.000264   0.091921   0.103047
O   7.538931   1.074516   4.693053   -1.065764   -0.172911   0.158802   -0.000821   0.234770   0.029993   0.007590   0.008454   -0.005022   -0.193545
O   4.026118   7.864863   1.440135   -1.067781   -0.000322   -0.172303   0.157875   0.233694   -0.002338   -0.001468   0.031254   -0.096554   0.107589
O   0.498577   4.065149   7.945967   -1.068270   0.169343   0.012433   -0.157947   0.231903   0.005636   0.031425   -0.000028   0.095795   0.107597
   
The sperically averaged electron density of each atom fit to a function of the form exp(a - br) for r >= rmin_cloud_penetration
atomic symbol, x, y, z, a, b, Rsquared where a and b are in atomic units and Rsquared is the squared correlation coefficient
Si   0.135660   2.474187   8.233157   -0.818730   1.837606   0.998358
Si   7.984839   0.734243   3.132076   -0.816580   1.837637   0.998353
Si   2.466669   8.190369   0.980498   -0.816810   1.839567   0.998290
Si   5.585492   8.350230   1.157688   -0.815851   1.836133   0.998400
Si   7.911801   0.658652   6.254125   -0.817574   1.834534   0.998443
Si   0.060301   5.595385   8.406040   -0.821159   1.838930   0.998303
Si   7.913334   6.190869   1.158089   -0.817527   1.842884   0.998162
Si   0.062043   7.932626   6.255724   -0.817995   1.834061   0.998473
Si   5.586137   0.477127   8.408285   -0.813151   1.832487   0.998538
Si   2.466112   0.318234   8.233576   -0.821595   1.838310   0.998317
Si   0.136520   8.009010   3.131926   -0.817526   1.837546   0.998363
Si   7.985329   3.073479   0.982228   -0.817614   1.837567   0.998344
O   1.594792   1.713679   8.420162   -0.781949   1.805204   0.999461
O   0.010530   0.001298   3.031212   -0.507828   1.787987   0.999854
O   8.112861   2.204376   2.384522   -0.756708   1.809398   0.999455
O   3.026558   0.237796   0.246139   -0.510495   1.786992   0.999867
O   1.593287   8.254155   2.385783   -0.776513   1.805157   0.999469
O   0.012367   3.030308   0.246466   -0.510551   1.787430   0.999860
O   6.455064   6.953421   0.978704   -0.769807   1.807248   0.999462
O   8.036137   8.666078   6.362982   -0.514411   1.786500   0.999864
O   6.455908   0.412457   7.001623   -0.779739   1.805165   0.999471
O   8.033225   5.635717   9.144335   -0.508866   1.787715   0.999858
O   -0.072824   6.462418   7.002957   -0.775416   1.805593   0.999470
O   5.032485   8.433657   9.149217   -0.509221   1.787798   0.999860
O   1.276700   6.157363   9.396504   -0.510593   1.798541   0.999820
O   -0.706791   1.938775   6.898925   -0.513169   1.798894   0.999817
O   6.051637   9.226451   2.495616   -0.514617   1.799037   0.999821
O   6.049539   1.734871   9.396911   -0.514368   1.798948   0.999822
O   -0.710292   6.726024   2.490851   -0.511470   1.799063   0.999817
O   1.993546   -0.558915   6.897133   -0.503142   1.800835   0.999815
O   0.503159   7.593108   4.694095   -0.828154   1.810563   0.999541
O   4.026246   0.798911   7.951230   -0.825912   1.810057   0.999553
O   7.541367   4.601426   1.448982   -0.834700   1.809478   0.999544
O   7.538931   1.074516   4.693053   -0.833608   1.809916   0.999540
O   4.026118   7.864863   1.440135   -0.833790   1.808682   0.999557
O   0.498577   4.065149   7.945967   -0.820015   1.811463   0.999547
   
28-Mar-2012 13:26:27
